distribution_simulation/Substation_R4_12_47_1_60_cosim.glm
#set profiler=1

#include "../support/schedules/appliance_schedules.glm";

#include "../support/schedules/water_and_setpoint_schedule_v5.glm";

#include "../support/schedules/commercial_schedules.glm";

#set minimum_timestep=60;

#set relax_naming_rules=1;

#set warn=0;

#define INVERTER_MODE=CONSTANT_PQ

#define INV_VBASE=240.0

#define INV_V1=0.92

#define INV_V2=0.98

#define INV_V3=1.02

#define INV_V4=1.08

#define INV_Q1=0.44

#define INV_Q2=0.00

#define INV_Q3=0.00

#define INV_Q4=-0.44

#define INV_VIN=200.0

#define INV_IIN=32.5

#define INV_VVLOCKOUT=300.0

#define INV_VW_V1=1.05 // 1.05833

#define INV_VW_V2=1.10

#define INV_VW_P1=1.0

#define INV_VW_P2=0.0

#ifdef WANT_VI_DUMP

#endif

#ifdef USE_HELICS

#endif


clock {
	timezone CST+6CDT;
	starttime '2021-08-06 00:00:00';
	stoptime '2021-08-12 00:00:00';
}

module tape;

module powerflow {
	lu_solver "KLU";
	solver_method FBS;
	default_maximum_voltage_error 0.01;
};

module climate;

module generators;

module connection;

module residential {
	implicit_enduses NONE;
};

class player {
	double value;
};

object metrics_collector_writer {
	name metrics_collector_1;
	interval 300;
	interim 7200;
	filename outputs/sim_metrics_;
}

object csv_reader {
	name csv_reader_obj;
	filename "../support/weather/Bronte2021_LST_CSV.csv";
}

object climate {
	name weather_Substation_2;
	tmyfile "../support/weather/Bronte2021_LST_CSV.csv";
	reader csv_reader_obj;
	interpolate QUADRATIC;
	latitude 29.65;
	longitude -95.42;
	tz_meridian -90.00;
}

object transformer_configuration {
	name feeder1_XF1_POLETOP_CS_200p0;
	power_rating 200.00;
	powerA_rating 0.0;
	powerB_rating 0.0;
	powerC_rating 200.00;
	install_type POLETOP;
	connect_type SINGLE_PHASE_CENTER_TAPPED;
	primary_voltage 7970.0;
	secondary_voltage 120.0;
	resistance 0.00550;
	resistance1 0.01100;
	resistance2 0.01100;
	reactance 0.03080;
	reactance1 0.01540;
	reactance2 0.01540;
	shunt_resistance 277.78;
	shunt_reactance 55.25;
}

object transformer_configuration {
	name feeder1_XF1_POLETOP_AS_200p0;
	power_rating 200.00;
	powerA_rating 200.00;
	powerB_rating 0.0;
	powerC_rating 0.0;
	install_type POLETOP;
	connect_type SINGLE_PHASE_CENTER_TAPPED;
	primary_voltage 7970.0;
	secondary_voltage 120.0;
	resistance 0.00550;
	resistance1 0.01100;
	resistance2 0.01100;
	reactance 0.03080;
	reactance1 0.01540;
	reactance2 0.01540;
	shunt_resistance 277.78;
	shunt_reactance 55.25;
}

object transformer_configuration {
	name feeder1_XF1_POLETOP_BS_37p5;
	power_rating 37.50;
	powerA_rating 0.0;
	powerB_rating 37.50;
	powerC_rating 0.0;
	install_type POLETOP;
	connect_type SINGLE_PHASE_CENTER_TAPPED;
	primary_voltage 7970.0;
	secondary_voltage 120.0;
	resistance 0.00725;
	resistance1 0.01450;
	resistance2 0.01450;
	reactance 0.01320;
	reactance1 0.00660;
	reactance2 0.00660;
	shunt_resistance 212.77;
	shunt_reactance 57.47;
}

object transformer_configuration {
	name feeder1_XF1_POLETOP_CS_37p5;
	power_rating 37.50;
	powerA_rating 0.0;
	powerB_rating 0.0;
	powerC_rating 37.50;
	install_type POLETOP;
	connect_type SINGLE_PHASE_CENTER_TAPPED;
	primary_voltage 7970.0;
	secondary_voltage 120.0;
	resistance 0.00725;
	resistance1 0.01450;
	resistance2 0.01450;
	reactance 0.01320;
	reactance1 0.00660;
	reactance2 0.00660;
	shunt_resistance 212.77;
	shunt_reactance 57.47;
}

object transformer_configuration {
	name feeder1_XF1_POLETOP_CS_50;
	power_rating 50.00;
	powerA_rating 0.0;
	powerB_rating 0.0;
	powerC_rating 50.00;
	install_type POLETOP;
	connect_type SINGLE_PHASE_CENTER_TAPPED;
	primary_voltage 7970.0;
	secondary_voltage 120.0;
	resistance 0.00650;
	resistance1 0.01300;
	resistance2 0.01300;
	reactance 0.01416;
	reactance1 0.00708;
	reactance2 0.00708;
	shunt_resistance 222.22;
	shunt_reactance 64.94;
}

object transformer_configuration {
	name feeder1_XF1_POLETOP_BS_200p0;
	power_rating 200.00;
	powerA_rating 0.0;
	powerB_rating 200.00;
	powerC_rating 0.0;
	install_type POLETOP;
	connect_type SINGLE_PHASE_CENTER_TAPPED;
	primary_voltage 7970.0;
	secondary_voltage 120.0;
	resistance 0.00550;
	resistance1 0.01100;
	resistance2 0.01100;
	reactance 0.03080;
	reactance1 0.01540;
	reactance2 0.01540;
	shunt_resistance 277.78;
	shunt_reactance 55.25;
}

object transformer_configuration {
	name feeder1_XF1_POLETOP_CS_75;
	power_rating 75.00;
	powerA_rating 0.0;
	powerB_rating 0.0;
	powerC_rating 75.00;
	install_type POLETOP;
	connect_type SINGLE_PHASE_CENTER_TAPPED;
	primary_voltage 7970.0;
	secondary_voltage 120.0;
	resistance 0.00625;
	resistance1 0.01250;
	resistance2 0.01250;
	reactance 0.01352;
	reactance1 0.00676;
	reactance2 0.00676;
	shunt_resistance 238.10;
	shunt_reactance 67.11;
}

object transformer_configuration {
	name feeder1_XF1_POLETOP_CS_100;
	power_rating 100.00;
	powerA_rating 0.0;
	powerB_rating 0.0;
	powerC_rating 100.00;
	install_type POLETOP;
	connect_type SINGLE_PHASE_CENTER_TAPPED;
	primary_voltage 7970.0;
	secondary_voltage 120.0;
	resistance 0.00600;
	resistance1 0.01200;
	resistance2 0.01200;
	reactance 0.01752;
	reactance1 0.00876;
	reactance2 0.00876;
	shunt_resistance 250.00;
	shunt_reactance 68.97;
}

object transformer_configuration {
	name feeder1_XF1_POLETOP_AS_75;
	power_rating 75.00;
	powerA_rating 75.00;
	powerB_rating 0.0;
	powerC_rating 0.0;
	install_type POLETOP;
	connect_type SINGLE_PHASE_CENTER_TAPPED;
	primary_voltage 7970.0;
	secondary_voltage 120.0;
	resistance 0.00625;
	resistance1 0.01250;
	resistance2 0.01250;
	reactance 0.01352;
	reactance1 0.00676;
	reactance2 0.00676;
	shunt_resistance 238.10;
	shunt_reactance 67.11;
}

object transformer_configuration {
	name feeder1_XF1_POLETOP_AS_300p0;
	power_rating 300.00;
	powerA_rating 300.00;
	powerB_rating 0.0;
	powerC_rating 0.0;
	install_type POLETOP;
	connect_type SINGLE_PHASE_CENTER_TAPPED;
	primary_voltage 7970.0;
	secondary_voltage 120.0;
	resistance 0.00500;
	resistance1 0.01000;
	resistance2 0.01000;
	reactance 0.03920;
	reactance1 0.01960;
	reactance2 0.01960;
	shunt_resistance 294.12;
	shunt_reactance 50.76;
}

object transformer_configuration {
	name feeder1_XF1_POLETOP_AS_37p5;
	power_rating 37.50;
	powerA_rating 37.50;
	powerB_rating 0.0;
	powerC_rating 0.0;
	install_type POLETOP;
	connect_type SINGLE_PHASE_CENTER_TAPPED;
	primary_voltage 7970.0;
	secondary_voltage 120.0;
	resistance 0.00725;
	resistance1 0.01450;
	resistance2 0.01450;
	reactance 0.01320;
	reactance1 0.00660;
	reactance2 0.00660;
	shunt_resistance 212.77;
	shunt_reactance 57.47;
}

object transformer_configuration {
	name feeder1_XF1_POLETOP_CS_25;
	power_rating 25.00;
	powerA_rating 0.0;
	powerB_rating 0.0;
	powerC_rating 25.00;
	install_type POLETOP;
	connect_type SINGLE_PHASE_CENTER_TAPPED;
	primary_voltage 7970.0;
	secondary_voltage 120.0;
	resistance 0.00800;
	resistance1 0.01600;
	resistance2 0.01600;
	reactance 0.01208;
	reactance1 0.00604;
	reactance2 0.00604;
	shunt_resistance 192.31;
	shunt_reactance 51.81;
}

object transformer_configuration {
	name feeder1_XF1_POLETOP_CS_100p0;
	power_rating 100.00;
	powerA_rating 0.0;
	powerB_rating 0.0;
	powerC_rating 100.00;
	install_type POLETOP;
	connect_type SINGLE_PHASE_CENTER_TAPPED;
	primary_voltage 7970.0;
	secondary_voltage 120.0;
	resistance 0.00600;
	resistance1 0.01200;
	resistance2 0.01200;
	reactance 0.01752;
	reactance1 0.00876;
	reactance2 0.00876;
	shunt_resistance 250.00;
	shunt_reactance 68.97;
}

object transformer_configuration {
	name feeder1_XF1_POLETOP_AS_100p0;
	power_rating 100.00;
	powerA_rating 100.00;
	powerB_rating 0.0;
	powerC_rating 0.0;
	install_type POLETOP;
	connect_type SINGLE_PHASE_CENTER_TAPPED;
	primary_voltage 7970.0;
	secondary_voltage 120.0;
	resistance 0.00600;
	resistance1 0.01200;
	resistance2 0.01200;
	reactance 0.01752;
	reactance1 0.00876;
	reactance2 0.00876;
	shunt_resistance 250.00;
	shunt_reactance 68.97;
}

object transformer_configuration {
	name feeder1_XF1_POLETOP_BS_300p0;
	power_rating 300.00;
	powerA_rating 0.0;
	powerB_rating 300.00;
	powerC_rating 0.0;
	install_type POLETOP;
	connect_type SINGLE_PHASE_CENTER_TAPPED;
	primary_voltage 7970.0;
	secondary_voltage 120.0;
	resistance 0.00500;
	resistance1 0.01000;
	resistance2 0.01000;
	reactance 0.03920;
	reactance1 0.01960;
	reactance2 0.01960;
	shunt_resistance 294.12;
	shunt_reactance 50.76;
}

object transformer_configuration {
	name feeder1_XF1_POLETOP_CS_300p0;
	power_rating 300.00;
	powerA_rating 0.0;
	powerB_rating 0.0;
	powerC_rating 300.00;
	install_type POLETOP;
	connect_type SINGLE_PHASE_CENTER_TAPPED;
	primary_voltage 7970.0;
	secondary_voltage 120.0;
	resistance 0.00500;
	resistance1 0.01000;
	resistance2 0.01000;
	reactance 0.03920;
	reactance1 0.01960;
	reactance2 0.01960;
	shunt_resistance 294.12;
	shunt_reactance 50.76;
}

object transformer_configuration {
	name feeder1_XF1_POLETOP_BS_500p0;
	power_rating 500.00;
	powerA_rating 0.0;
	powerB_rating 500.00;
	powerC_rating 0.0;
	install_type POLETOP;
	connect_type SINGLE_PHASE_CENTER_TAPPED;
	primary_voltage 7970.0;
	secondary_voltage 120.0;
	resistance 0.00500;
	resistance1 0.01000;
	resistance2 0.01000;
	reactance 0.03920;
	reactance1 0.01960;
	reactance2 0.01960;
	shunt_resistance 344.83;
	shunt_reactance 50.51;
}

object transformer_configuration {
	name feeder1_XF1_POLETOP_AS_500p0;
	power_rating 500.00;
	powerA_rating 500.00;
	powerB_rating 0.0;
	powerC_rating 0.0;
	install_type POLETOP;
	connect_type SINGLE_PHASE_CENTER_TAPPED;
	primary_voltage 7970.0;
	secondary_voltage 120.0;
	resistance 0.00500;
	resistance1 0.01000;
	resistance2 0.01000;
	reactance 0.03920;
	reactance1 0.01960;
	reactance2 0.01960;
	shunt_resistance 344.83;
	shunt_reactance 50.51;
}

object transformer_configuration {
	name feeder1_XF1_PADMOUNT_BS_200p0;
	power_rating 200.00;
	powerA_rating 0.0;
	powerB_rating 200.00;
	powerC_rating 0.0;
	install_type PADMOUNT;
	connect_type SINGLE_PHASE_CENTER_TAPPED;
	primary_voltage 7970.0;
	secondary_voltage 120.0;
	resistance 0.00550;
	resistance1 0.01100;
	resistance2 0.01100;
	reactance 0.03080;
	reactance1 0.01540;
	reactance2 0.01540;
	shunt_resistance 277.78;
	shunt_reactance 55.25;
}

object transformer_configuration {
	name feeder1_XF1_POLETOP_BS_50;
	power_rating 50.00;
	powerA_rating 0.0;
	powerB_rating 50.00;
	powerC_rating 0.0;
	install_type POLETOP;
	connect_type SINGLE_PHASE_CENTER_TAPPED;
	primary_voltage 7970.0;
	secondary_voltage 120.0;
	resistance 0.00650;
	resistance1 0.01300;
	resistance2 0.01300;
	reactance 0.01416;
	reactance1 0.00708;
	reactance2 0.00708;
	shunt_resistance 222.22;
	shunt_reactance 64.94;
}

object transformer_configuration {
	name feeder1_XF1_PADMOUNT_BS_300p0;
	power_rating 300.00;
	powerA_rating 0.0;
	powerB_rating 300.00;
	powerC_rating 0.0;
	install_type PADMOUNT;
	connect_type SINGLE_PHASE_CENTER_TAPPED;
	primary_voltage 7970.0;
	secondary_voltage 120.0;
	resistance 0.00500;
	resistance1 0.01000;
	resistance2 0.01000;
	reactance 0.03920;
	reactance1 0.01960;
	reactance2 0.01960;
	shunt_resistance 294.12;
	shunt_reactance 50.76;
}

object transformer_configuration {
	name feeder1_XF1_POLETOP_BS_75;
	power_rating 75.00;
	powerA_rating 0.0;
	powerB_rating 75.00;
	powerC_rating 0.0;
	install_type POLETOP;
	connect_type SINGLE_PHASE_CENTER_TAPPED;
	primary_voltage 7970.0;
	secondary_voltage 120.0;
	resistance 0.00625;
	resistance1 0.01250;
	resistance2 0.01250;
	reactance 0.01352;
	reactance1 0.00676;
	reactance2 0.00676;
	shunt_resistance 238.10;
	shunt_reactance 67.11;
}

object transformer_configuration {
	name feeder1_XF1_PADMOUNT_CS_100;
	power_rating 100.00;
	powerA_rating 0.0;
	powerB_rating 0.0;
	powerC_rating 100.00;
	install_type PADMOUNT;
	connect_type SINGLE_PHASE_CENTER_TAPPED;
	primary_voltage 7970.0;
	secondary_voltage 120.0;
	resistance 0.00600;
	resistance1 0.01200;
	resistance2 0.01200;
	reactance 0.01752;
	reactance1 0.00876;
	reactance2 0.00876;
	shunt_resistance 250.00;
	shunt_reactance 68.97;
}

object transformer_configuration {
	name feeder1_XF1_PADMOUNT_AS_100;
	power_rating 100.00;
	powerA_rating 100.00;
	powerB_rating 0.0;
	powerC_rating 0.0;
	install_type PADMOUNT;
	connect_type SINGLE_PHASE_CENTER_TAPPED;
	primary_voltage 7970.0;
	secondary_voltage 120.0;
	resistance 0.00600;
	resistance1 0.01200;
	resistance2 0.01200;
	reactance 0.01752;
	reactance1 0.00876;
	reactance2 0.00876;
	shunt_resistance 250.00;
	shunt_reactance 68.97;
}

object transformer_configuration {
	name feeder1_XF1_PADMOUNT_BS_75;
	power_rating 75.00;
	powerA_rating 0.0;
	powerB_rating 75.00;
	powerC_rating 0.0;
	install_type PADMOUNT;
	connect_type SINGLE_PHASE_CENTER_TAPPED;
	primary_voltage 7970.0;
	secondary_voltage 120.0;
	resistance 0.00625;
	resistance1 0.01250;
	resistance2 0.01250;
	reactance 0.01352;
	reactance1 0.00676;
	reactance2 0.00676;
	shunt_resistance 238.10;
	shunt_reactance 67.11;
}

object transformer_configuration {
	name feeder1_XF1_POLETOP_AS_100;
	power_rating 100.00;
	powerA_rating 100.00;
	powerB_rating 0.0;
	powerC_rating 0.0;
	install_type POLETOP;
	connect_type SINGLE_PHASE_CENTER_TAPPED;
	primary_voltage 7970.0;
	secondary_voltage 120.0;
	resistance 0.00600;
	resistance1 0.01200;
	resistance2 0.01200;
	reactance 0.01752;
	reactance1 0.00876;
	reactance2 0.00876;
	shunt_resistance 250.00;
	shunt_reactance 68.97;
}

object transformer_configuration {
	name feeder1_XF1_PADMOUNT_AS_200p0;
	power_rating 200.00;
	powerA_rating 200.00;
	powerB_rating 0.0;
	powerC_rating 0.0;
	install_type PADMOUNT;
	connect_type SINGLE_PHASE_CENTER_TAPPED;
	primary_voltage 7970.0;
	secondary_voltage 120.0;
	resistance 0.00550;
	resistance1 0.01100;
	resistance2 0.01100;
	reactance 0.03080;
	reactance1 0.01540;
	reactance2 0.01540;
	shunt_resistance 277.78;
	shunt_reactance 55.25;
}

object transformer_configuration {
	name feeder1_XF1_PADMOUNT_CS_37p5;
	power_rating 37.50;
	powerA_rating 0.0;
	powerB_rating 0.0;
	powerC_rating 37.50;
	install_type PADMOUNT;
	connect_type SINGLE_PHASE_CENTER_TAPPED;
	primary_voltage 7970.0;
	secondary_voltage 120.0;
	resistance 0.00725;
	resistance1 0.01450;
	resistance2 0.01450;
	reactance 0.01320;
	reactance1 0.00660;
	reactance2 0.00660;
	shunt_resistance 212.77;
	shunt_reactance 57.47;
}

object transformer_configuration {
	name feeder1_XF1_PADMOUNT_BS_500p0;
	power_rating 500.00;
	powerA_rating 0.0;
	powerB_rating 500.00;
	powerC_rating 0.0;
	install_type PADMOUNT;
	connect_type SINGLE_PHASE_CENTER_TAPPED;
	primary_voltage 7970.0;
	secondary_voltage 120.0;
	resistance 0.00500;
	resistance1 0.01000;
	resistance2 0.01000;
	reactance 0.03920;
	reactance1 0.01960;
	reactance2 0.01960;
	shunt_resistance 344.83;
	shunt_reactance 50.51;
}

object transformer_configuration {
	name feeder1_XF1_PADMOUNT_CS_300p0;
	power_rating 300.00;
	powerA_rating 0.0;
	powerB_rating 0.0;
	powerC_rating 300.00;
	install_type PADMOUNT;
	connect_type SINGLE_PHASE_CENTER_TAPPED;
	primary_voltage 7970.0;
	secondary_voltage 120.0;
	resistance 0.00500;
	resistance1 0.01000;
	resistance2 0.01000;
	reactance 0.03920;
	reactance1 0.01960;
	reactance2 0.01960;
	shunt_resistance 294.12;
	shunt_reactance 50.76;
}

object transformer_configuration {
	name feeder1_XF1_PADMOUNT_CS_500p0;
	power_rating 500.00;
	powerA_rating 0.0;
	powerB_rating 0.0;
	powerC_rating 500.00;
	install_type PADMOUNT;
	connect_type SINGLE_PHASE_CENTER_TAPPED;
	primary_voltage 7970.0;
	secondary_voltage 120.0;
	resistance 0.00500;
	resistance1 0.01000;
	resistance2 0.01000;
	reactance 0.03920;
	reactance1 0.01960;
	reactance2 0.01960;
	shunt_resistance 344.83;
	shunt_reactance 50.51;
}

object transformer_configuration {
	name feeder1_XF1_POLETOP_CS_500p0;
	power_rating 500.00;
	powerA_rating 0.0;
	powerB_rating 0.0;
	powerC_rating 500.00;
	install_type POLETOP;
	connect_type SINGLE_PHASE_CENTER_TAPPED;
	primary_voltage 7970.0;
	secondary_voltage 120.0;
	resistance 0.00500;
	resistance1 0.01000;
	resistance2 0.01000;
	reactance 0.03920;
	reactance1 0.01960;
	reactance2 0.01960;
	shunt_resistance 344.83;
	shunt_reactance 50.51;
}

object transformer_configuration {
	name feeder1_XF1_PADMOUNT_AS_37p5;
	power_rating 37.50;
	powerA_rating 37.50;
	powerB_rating 0.0;
	powerC_rating 0.0;
	install_type PADMOUNT;
	connect_type SINGLE_PHASE_CENTER_TAPPED;
	primary_voltage 7970.0;
	secondary_voltage 120.0;
	resistance 0.00725;
	resistance1 0.01450;
	resistance2 0.01450;
	reactance 0.01320;
	reactance1 0.00660;
	reactance2 0.00660;
	shunt_resistance 212.77;
	shunt_reactance 57.47;
}

object transformer_configuration {
	name feeder1_XF1_PADMOUNT_BS_50;
	power_rating 50.00;
	powerA_rating 0.0;
	powerB_rating 50.00;
	powerC_rating 0.0;
	install_type PADMOUNT;
	connect_type SINGLE_PHASE_CENTER_TAPPED;
	primary_voltage 7970.0;
	secondary_voltage 120.0;
	resistance 0.00650;
	resistance1 0.01300;
	resistance2 0.01300;
	reactance 0.01416;
	reactance1 0.00708;
	reactance2 0.00708;
	shunt_resistance 222.22;
	shunt_reactance 64.94;
}

object transformer_configuration {
	name feeder1_XF1_PADMOUNT_CS_200p0;
	power_rating 200.00;
	powerA_rating 0.0;
	powerB_rating 0.0;
	powerC_rating 200.00;
	install_type PADMOUNT;
	connect_type SINGLE_PHASE_CENTER_TAPPED;
	primary_voltage 7970.0;
	secondary_voltage 120.0;
	resistance 0.00550;
	resistance1 0.01100;
	resistance2 0.01100;
	reactance 0.03080;
	reactance1 0.01540;
	reactance2 0.01540;
	shunt_resistance 277.78;
	shunt_reactance 55.25;
}

object transformer_configuration {
	name feeder1_XF1_POLETOP_BS_25;
	power_rating 25.00;
	powerA_rating 0.0;
	powerB_rating 25.00;
	powerC_rating 0.0;
	install_type POLETOP;
	connect_type SINGLE_PHASE_CENTER_TAPPED;
	primary_voltage 7970.0;
	secondary_voltage 120.0;
	resistance 0.00800;
	resistance1 0.01600;
	resistance2 0.01600;
	reactance 0.01208;
	reactance1 0.00604;
	reactance2 0.00604;
	shunt_resistance 192.31;
	shunt_reactance 51.81;
}

object transformer_configuration {
	name feeder1_XF1_PADMOUNT_AS_300p0;
	power_rating 300.00;
	powerA_rating 300.00;
	powerB_rating 0.0;
	powerC_rating 0.0;
	install_type PADMOUNT;
	connect_type SINGLE_PHASE_CENTER_TAPPED;
	primary_voltage 7970.0;
	secondary_voltage 120.0;
	resistance 0.00500;
	resistance1 0.01000;
	resistance2 0.01000;
	reactance 0.03920;
	reactance1 0.01960;
	reactance2 0.01960;
	shunt_resistance 294.12;
	shunt_reactance 50.76;
}

object transformer_configuration {
	name feeder1_XF1_POLETOP_AS_10;
	power_rating 10.00;
	powerA_rating 10.00;
	powerB_rating 0.0;
	powerC_rating 0.0;
	install_type POLETOP;
	connect_type SINGLE_PHASE_CENTER_TAPPED;
	primary_voltage 7970.0;
	secondary_voltage 120.0;
	resistance 0.00950;
	resistance1 0.01900;
	resistance2 0.01900;
	reactance 0.01040;
	reactance1 0.00520;
	reactance2 0.00520;
	shunt_resistance 147.06;
	shunt_reactance 34.25;
}

object transformer_configuration {
	name feeder1_XF1_POLETOP_CN_5;
	power_rating 5.00;
	powerA_rating 0.0;
	powerB_rating 0.0;
	powerC_rating 5.00;
	install_type POLETOP;
	connect_type WYE_WYE;
	primary_voltage 13800.0;
	secondary_voltage 208.0;
	resistance 0.01900;
	reactance 0.01770;
	shunt_resistance 126.58;
	shunt_reactance 22.57;
}

object transformer_configuration {
	name feeder1_XF3_POLETOP_ABCN_45;
	power_rating 45.00;
	powerA_rating 15.00;
	powerB_rating 15.00;
	powerC_rating 15.00;
	install_type POLETOP;
	connect_type WYE_WYE;
	primary_voltage 13800.0;
	secondary_voltage 208.0;
	resistance 0.01750;
	reactance 0.02120;
	shunt_resistance 142.86;
	shunt_reactance 25.38;
}

object transformer_configuration {
	name feeder1_XF3_POLETOP_ABCN_30;
	power_rating 30.00;
	powerA_rating 10.00;
	powerB_rating 10.00;
	powerC_rating 10.00;
	install_type POLETOP;
	connect_type WYE_WYE;
	primary_voltage 13800.0;
	secondary_voltage 208.0;
	resistance 0.01900;
	reactance 0.01770;
	shunt_resistance 126.58;
	shunt_reactance 22.57;
}

object transformer_configuration {
	name feeder1_XF3_POLETOP_ABCN_300;
	power_rating 300.00;
	powerA_rating 100.00;
	powerB_rating 100.00;
	powerC_rating 100.00;
	install_type POLETOP;
	connect_type WYE_WYE;
	primary_voltage 13800.0;
	secondary_voltage 480.0;
	resistance 0.01300;
	reactance 0.04830;
	shunt_resistance 217.39;
	shunt_reactance 44.44;
}

object transformer_configuration {
	name feeder1_XF2_POLETOP_ABN_30;
	power_rating 30.00;
	powerA_rating 15.00;
	powerB_rating 15.00;
	powerC_rating 0.0;
	install_type POLETOP;
	connect_type WYE_WYE;
	primary_voltage 13800.0;
	secondary_voltage 208.0;
	resistance 0.01900;
	reactance 0.01770;
	shunt_resistance 126.58;
	shunt_reactance 22.57;
}

object transformer_configuration {
	name feeder1_XF3_POLETOP_ABCN_112p5;
	power_rating 112.50;
	powerA_rating 37.50;
	powerB_rating 37.50;
	powerC_rating 37.50;
	install_type POLETOP;
	connect_type WYE_WYE;
	primary_voltage 13800.0;
	secondary_voltage 480.0;
	resistance 0.01450;
	reactance 0.02850;
	shunt_resistance 169.49;
	shunt_reactance 33.44;
}

object transformer_configuration {
	name feeder1_XF2_POLETOP_ACN_30;
	power_rating 30.00;
	powerA_rating 15.00;
	powerB_rating 0.0;
	powerC_rating 15.00;
	install_type POLETOP;
	connect_type WYE_WYE;
	primary_voltage 13800.0;
	secondary_voltage 208.0;
	resistance 0.01900;
	reactance 0.01770;
	shunt_resistance 126.58;
	shunt_reactance 22.57;
}

object transformer_configuration {
	name feeder1_XF3_PADMOUNT_ABCN_30;
	power_rating 30.00;
	powerA_rating 10.00;
	powerB_rating 10.00;
	powerC_rating 10.00;
	install_type PADMOUNT;
	connect_type WYE_WYE;
	primary_voltage 13800.0;
	secondary_voltage 208.0;
	resistance 0.01900;
	reactance 0.01770;
	shunt_resistance 126.58;
	shunt_reactance 22.57;
}

object transformer_configuration {
	name feeder1_XF2_PADMOUNT_ACN_75;
	power_rating 75.00;
	powerA_rating 37.50;
	powerB_rating 0.0;
	powerC_rating 37.50;
	install_type PADMOUNT;
	connect_type WYE_WYE;
	primary_voltage 13800.0;
	secondary_voltage 208.0;
	resistance 0.01600;
	reactance 0.02420;
	shunt_resistance 158.73;
	shunt_reactance 30.86;
}

object transformer_configuration {
	name feeder1_XF1_PADMOUNT_CN_200p0;
	power_rating 200.00;
	powerA_rating 0.0;
	powerB_rating 0.0;
	powerC_rating 200.00;
	install_type PADMOUNT;
	connect_type WYE_WYE;
	primary_voltage 13800.0;
	secondary_voltage 480.0;
	resistance 0.01300;
	reactance 0.03520;
	shunt_resistance 200.00;
	shunt_reactance 40.00;
}

object transformer_configuration {
	name feeder1_XF1_POLETOP_BN_37p5;
	power_rating 37.50;
	powerA_rating 0.0;
	powerB_rating 37.50;
	powerC_rating 0.0;
	install_type POLETOP;
	connect_type WYE_WYE;
	primary_voltage 13800.0;
	secondary_voltage 208.0;
	resistance 0.01750;
	reactance 0.02120;
	shunt_resistance 142.86;
	shunt_reactance 25.38;
}

object transformer_configuration {
	name feeder1_XF1_POLETOP_AN_100;
	power_rating 100.00;
	powerA_rating 100.00;
	powerB_rating 0.0;
	powerC_rating 0.0;
	install_type POLETOP;
	connect_type WYE_WYE;
	primary_voltage 13800.0;
	secondary_voltage 208.0;
	resistance 0.01450;
	reactance 0.02850;
	shunt_resistance 169.49;
	shunt_reactance 33.44;
}

object transformer_configuration {
	name feeder1_XF3_POLETOP_ABCN_75;
	power_rating 75.00;
	powerA_rating 25.00;
	powerB_rating 25.00;
	powerC_rating 25.00;
	install_type POLETOP;
	connect_type WYE_WYE;
	primary_voltage 13800.0;
	secondary_voltage 208.0;
	resistance 0.01600;
	reactance 0.02420;
	shunt_resistance 158.73;
	shunt_reactance 30.86;
}

object transformer_configuration {
	name feeder1_XF2_POLETOP_BCN_112p5;
	power_rating 112.50;
	powerA_rating 0.0;
	powerB_rating 56.25;
	powerC_rating 56.25;
	install_type POLETOP;
	connect_type WYE_WYE;
	primary_voltage 13800.0;
	secondary_voltage 480.0;
	resistance 0.01450;
	reactance 0.02850;
	shunt_resistance 169.49;
	shunt_reactance 33.44;
}

object transformer_configuration {
	name feeder1_XF2_POLETOP_BCN_30;
	power_rating 30.00;
	powerA_rating 0.0;
	powerB_rating 15.00;
	powerC_rating 15.00;
	install_type POLETOP;
	connect_type WYE_WYE;
	primary_voltage 13800.0;
	secondary_voltage 208.0;
	resistance 0.01900;
	reactance 0.01770;
	shunt_resistance 126.58;
	shunt_reactance 22.57;
}

object transformer_configuration {
	name feeder1_XF1_POLETOP_CN_200p0;
	power_rating 200.00;
	powerA_rating 0.0;
	powerB_rating 0.0;
	powerC_rating 200.00;
	install_type POLETOP;
	connect_type WYE_WYE;
	primary_voltage 13800.0;
	secondary_voltage 480.0;
	resistance 0.01300;
	reactance 0.03520;
	shunt_resistance 200.00;
	shunt_reactance 40.00;
}

object transformer_configuration {
	name feeder1_XF1_POLETOP_CN_10;
	power_rating 10.00;
	powerA_rating 0.0;
	powerB_rating 0.0;
	powerC_rating 10.00;
	install_type POLETOP;
	connect_type WYE_WYE;
	primary_voltage 13800.0;
	secondary_voltage 208.0;
	resistance 0.01900;
	reactance 0.01770;
	shunt_resistance 126.58;
	shunt_reactance 22.57;
}

object transformer_configuration {
	name feeder1_XF1_POLETOP_CN_75;
	power_rating 75.00;
	powerA_rating 0.0;
	powerB_rating 0.0;
	powerC_rating 75.00;
	install_type POLETOP;
	connect_type WYE_WYE;
	primary_voltage 13800.0;
	secondary_voltage 208.0;
	resistance 0.01600;
	reactance 0.02420;
	shunt_resistance 158.73;
	shunt_reactance 30.86;
}

object transformer_configuration {
	name feeder1_XF2_POLETOP_BCN_45;
	power_rating 45.00;
	powerA_rating 0.0;
	powerB_rating 22.50;
	powerC_rating 22.50;
	install_type POLETOP;
	connect_type WYE_WYE;
	primary_voltage 13800.0;
	secondary_voltage 208.0;
	resistance 0.01750;
	reactance 0.02120;
	shunt_resistance 142.86;
	shunt_reactance 25.38;
}

object transformer_configuration {
	name feeder1_XF1_POLETOP_BN_50;
	power_rating 50.00;
	powerA_rating 0.0;
	powerB_rating 50.00;
	powerC_rating 0.0;
	install_type POLETOP;
	connect_type WYE_WYE;
	primary_voltage 13800.0;
	secondary_voltage 208.0;
	resistance 0.01600;
	reactance 0.02420;
	shunt_resistance 158.73;
	shunt_reactance 30.86;
}

object transformer_configuration {
	name feeder1_XF2_POLETOP_ACN_45;
	power_rating 45.00;
	powerA_rating 22.50;
	powerB_rating 0.0;
	powerC_rating 22.50;
	install_type POLETOP;
	connect_type WYE_WYE;
	primary_voltage 13800.0;
	secondary_voltage 208.0;
	resistance 0.01750;
	reactance 0.02120;
	shunt_resistance 142.86;
	shunt_reactance 25.38;
}

object transformer_configuration {
	name feeder1_XF1_POLETOP_AN_50;
	power_rating 50.00;
	powerA_rating 50.00;
	powerB_rating 0.0;
	powerC_rating 0.0;
	install_type POLETOP;
	connect_type WYE_WYE;
	primary_voltage 13800.0;
	secondary_voltage 208.0;
	resistance 0.01600;
	reactance 0.02420;
	shunt_resistance 158.73;
	shunt_reactance 30.86;
}

object transformer_configuration {
	name feeder1_XF1_POLETOP_CN_25;
	power_rating 25.00;
	powerA_rating 0.0;
	powerB_rating 0.0;
	powerC_rating 25.00;
	install_type POLETOP;
	connect_type WYE_WYE;
	primary_voltage 13800.0;
	secondary_voltage 208.0;
	resistance 0.01900;
	reactance 0.01770;
	shunt_resistance 126.58;
	shunt_reactance 22.57;
}

object transformer_configuration {
	name feeder1_XF1_POLETOP_CN_37p5;
	power_rating 37.50;
	powerA_rating 0.0;
	powerB_rating 0.0;
	powerC_rating 37.50;
	install_type POLETOP;
	connect_type WYE_WYE;
	primary_voltage 13800.0;
	secondary_voltage 208.0;
	resistance 0.01750;
	reactance 0.02120;
	shunt_resistance 142.86;
	shunt_reactance 25.38;
}

object transformer_configuration {
	name feeder1_XF1_POLETOP_CN_100;
	power_rating 100.00;
	powerA_rating 0.0;
	powerB_rating 0.0;
	powerC_rating 100.00;
	install_type POLETOP;
	connect_type WYE_WYE;
	primary_voltage 13800.0;
	secondary_voltage 208.0;
	resistance 0.01450;
	reactance 0.02850;
	shunt_resistance 169.49;
	shunt_reactance 33.44;
}

object transformer_configuration {
	name feeder1_XF1_POLETOP_CN_50;
	power_rating 50.00;
	powerA_rating 0.0;
	powerB_rating 0.0;
	powerC_rating 50.00;
	install_type POLETOP;
	connect_type WYE_WYE;
	primary_voltage 13800.0;
	secondary_voltage 208.0;
	resistance 0.01600;
	reactance 0.02420;
	shunt_resistance 158.73;
	shunt_reactance 30.86;
}

object transformer_configuration {
	name feeder1_XF1_POLETOP_AN_200p0;
	power_rating 200.00;
	powerA_rating 200.00;
	powerB_rating 0.0;
	powerC_rating 0.0;
	install_type POLETOP;
	connect_type WYE_WYE;
	primary_voltage 13800.0;
	secondary_voltage 480.0;
	resistance 0.01300;
	reactance 0.03520;
	shunt_resistance 200.00;
	shunt_reactance 40.00;
}

object transformer_configuration {
	name feeder1_XF1_POLETOP_BN_200p0;
	power_rating 200.00;
	powerA_rating 0.0;
	powerB_rating 200.00;
	powerC_rating 0.0;
	install_type POLETOP;
	connect_type WYE_WYE;
	primary_voltage 13800.0;
	secondary_voltage 480.0;
	resistance 0.01300;
	reactance 0.03520;
	shunt_resistance 200.00;
	shunt_reactance 40.00;
}

object transformer_configuration {
	name feeder1_XF1_POLETOP_AN_25;
	power_rating 25.00;
	powerA_rating 25.00;
	powerB_rating 0.0;
	powerC_rating 0.0;
	install_type POLETOP;
	connect_type WYE_WYE;
	primary_voltage 13800.0;
	secondary_voltage 208.0;
	resistance 0.01900;
	reactance 0.01770;
	shunt_resistance 126.58;
	shunt_reactance 22.57;
}

object transformer_configuration {
	name feeder1_XF1_POLETOP_AN_5;
	power_rating 5.00;
	powerA_rating 5.00;
	powerB_rating 0.0;
	powerC_rating 0.0;
	install_type POLETOP;
	connect_type WYE_WYE;
	primary_voltage 13800.0;
	secondary_voltage 208.0;
	resistance 0.01900;
	reactance 0.01770;
	shunt_resistance 126.58;
	shunt_reactance 22.57;
}

object transformer_configuration {
	name feeder1_XF1_POLETOP_BN_300p0;
	power_rating 300.00;
	powerA_rating 0.0;
	powerB_rating 300.00;
	powerC_rating 0.0;
	install_type POLETOP;
	connect_type WYE_WYE;
	primary_voltage 13800.0;
	secondary_voltage 480.0;
	resistance 0.01300;
	reactance 0.04830;
	shunt_resistance 217.39;
	shunt_reactance 44.44;
}

object transformer_configuration {
	name feeder1_XF1_POLETOP_BN_75;
	power_rating 75.00;
	powerA_rating 0.0;
	powerB_rating 75.00;
	powerC_rating 0.0;
	install_type POLETOP;
	connect_type WYE_WYE;
	primary_voltage 13800.0;
	secondary_voltage 208.0;
	resistance 0.01600;
	reactance 0.02420;
	shunt_resistance 158.73;
	shunt_reactance 30.86;
}

object transformer_configuration {
	name feeder1_XF1_POLETOP_AN_75;
	power_rating 75.00;
	powerA_rating 75.00;
	powerB_rating 0.0;
	powerC_rating 0.0;
	install_type POLETOP;
	connect_type WYE_WYE;
	primary_voltage 13800.0;
	secondary_voltage 208.0;
	resistance 0.01600;
	reactance 0.02420;
	shunt_resistance 158.73;
	shunt_reactance 30.86;
}

object transformer_configuration {
	name feeder1_XF1_PADMOUNT_CN_10;
	power_rating 10.00;
	powerA_rating 0.0;
	powerB_rating 0.0;
	powerC_rating 10.00;
	install_type PADMOUNT;
	connect_type WYE_WYE;
	primary_voltage 13800.0;
	secondary_voltage 208.0;
	resistance 0.01900;
	reactance 0.01770;
	shunt_resistance 126.58;
	shunt_reactance 22.57;
}

object transformer_configuration {
	name substation_xfmr_config;
	connect_type WYE_WYE;
	install_type PADMOUNT;
	primary_voltage 345000.00;
	secondary_voltage 13800.00;
	power_rating 20000.00;
	resistance 0.01;
	reactance 0.08;
	shunt_resistance 250.00;
	shunt_reactance 100.00;
}

object triplex_line_conductor {
	name feeder1_triplex_4/0_aa;
	resistance 0.48;
	geometric_mean_radius 0.0158;
	rating.summer.continuous 1000.0;
	rating.summer.emergency 1000.0;
	rating.winter.continuous 1000.0;
	rating.winter.emergency 1000.0;
}

object triplex_line_conductor {
	name feeder1_triplex_4/;
	resistance 0.48;
	geometric_mean_radius 0.0158;
	rating.summer.continuous 1000.0;
	rating.summer.emergency 1000.0;
	rating.winter.continuous 1000.0;
	rating.winter.emergency 1000.0;
}

object triplex_line_configuration {
	name feeder1_tpx_config;
	conductor_1 feeder1_triplex_4/0_aa;
	conductor_2 feeder1_triplex_4/0_aa;
	conductor_N feeder1_triplex_4/0_aa;
	insulation_thickness 0.08;
	diameter 0.522;
}

object triplex_line_configuration {
	name feeder1_ID_1940;
	conductor_1 feeder1_triplex_4/;
	conductor_2 feeder1_triplex_4/;
	conductor_N feeder1_triplex_4/;
	insulation_thickness 0.08;
	diameter 0.522;
}

object regulator_configuration {
	name feeder1_feeder_reg_cfg;
	Control OUTPUT_VOLTAGE;
	band_center 8300.0;
	band_width 133;
	connect_type WYE_WYE;
	time_delay 30;
	raise_taps 16;
	lower_taps 16;
	regulation 0.10;
	tap_pos_A 0;
	tap_pos_B 0;
	tap_pos_C 0;
}

object overhead_line_conductor {
	name feeder1_ID_1289;
	rating.summer.continuous 149.0;
	geometric_mean_radius 0.00663 ft;
	resistance 1.50000;
}

object overhead_line_conductor {
	name feeder1_ID_1290;
	rating.summer.continuous 256.0;
	geometric_mean_radius 0.01200 ft;
	resistance 0.16600;
}

object overhead_line_conductor {
	name feeder1_ID_1291;
	rating.summer.continuous 334.0;
	geometric_mean_radius 0.00814 ft;
	resistance 0.56300;
}

object overhead_line_conductor {
	name feeder1_ID_1292;
	rating.summer.continuous 360.0;
	geometric_mean_radius 0.01033 ft;
	resistance 0.47600;
}

object overhead_line_conductor {
	name feeder1_ID_1293;
	rating.summer.continuous 531.0;
	geometric_mean_radius 0.02240 ft;
	resistance 0.30600;
}

object line_spacing {
	name feeder1_ID_117;
	distance_BN 69.99999999996 in;
}

object line_spacing {
	name feeder1_ID_118;
	distance_CN 69.99999999996 in;
}

object line_spacing {
	name feeder1_ID_119;
	distance_AB 53.19999999996 in;
	distance_BC 53.19999999996 in;
	distance_AC 53.19999999996 in;
	distance_AN 80.49999999996 in;
	distance_BN 80.49999999996 in;
	distance_CN 80.49999999996 in;
}

object line_spacing {
	name feeder1_ID_120;
	distance_AN 69.99999999996 in;
}

object line_spacing {
	name feeder1_ID_121;
	distance_AC 87.99999999996 in;
	distance_AN 19.2 in;
	distance_CN 19.2 in;
}

object line_spacing {
	name feeder1_ID_122;
	distance_AB 87.99999999996 in;
	distance_AN 19.2 in;
	distance_BN 19.2 in;
}

object line_spacing {
	name feeder1_ID_123;
	distance_AN 360.0 in;
}

object line_spacing {
	name feeder1_ID_124;
	distance_BC 87.99999999996 in;
	distance_BN 19.2 in;
	distance_CN 19.2 in;
}

object line_spacing {
	name feeder1_ID_125;
	distance_CN 360.0 in;
}

object line_spacing {
	name feeder1_ID_126;
	distance_BN 360.0 in;
}

object line_spacing {
	name feeder1_ID_127;
	distance_BC 48.0 in;
	distance_BN 20.79999999996 in;
	distance_CN 20.79999999996 in;
}

object line_spacing {
	name feeder1_ID_128;
	distance_AB 12.0 in;
	distance_BC 12.0 in;
	distance_AC 12.0 in;
	distance_AN 360.0 in;
	distance_BN 360.0 in;
	distance_CN 360.0 in;
}

object line_spacing {
	name feeder1_ID_129;
	distance_AB 60.50000000004 in;
	distance_BC 60.50000000004 in;
	distance_AC 60.50000000004 in;
	distance_AN 114.99999999996 in;
	distance_BN 114.99999999996 in;
	distance_CN 114.99999999996 in;
}

object line_configuration {
	name feeder1_ID_88;
	conductor_B feeder1_ID_1289;
	conductor_N feeder1_ID_1289;
	spacing feeder1_ID_117;
}

object line_configuration {
	name feeder1_ID_89;
	conductor_C feeder1_ID_1289;
	conductor_N feeder1_ID_1289;
	spacing feeder1_ID_118;
}

object line_configuration {
	name feeder1_ID_90;
	conductor_A feeder1_ID_1290;
	conductor_B feeder1_ID_1290;
	conductor_C feeder1_ID_1290;
	conductor_N feeder1_ID_1290;
	spacing feeder1_ID_119;
}

object line_configuration {
	name feeder1_ID_91;
	conductor_A feeder1_ID_1290;
	conductor_B feeder1_ID_1290;
	conductor_C feeder1_ID_1290;
	conductor_N feeder1_ID_1290;
	spacing feeder1_ID_119;
}

object line_configuration {
	name feeder1_ID_92;
	conductor_A feeder1_ID_1291;
	conductor_B feeder1_ID_1291;
	conductor_C feeder1_ID_1291;
	conductor_N feeder1_ID_1291;
	spacing feeder1_ID_119;
}

object line_configuration {
	name feeder1_ID_93;
	conductor_A feeder1_ID_1292;
	conductor_B feeder1_ID_1292;
	conductor_C feeder1_ID_1292;
	conductor_N feeder1_ID_1292;
	spacing feeder1_ID_119;
}

object line_configuration {
	name feeder1_ID_94;
	conductor_A feeder1_ID_1292;
	conductor_B feeder1_ID_1292;
	conductor_C feeder1_ID_1292;
	conductor_N feeder1_ID_1292;
	spacing feeder1_ID_119;
}

object line_configuration {
	name feeder1_ID_95;
	conductor_A feeder1_ID_1289;
	conductor_N feeder1_ID_1289;
	spacing feeder1_ID_120;
}

object line_configuration {
	name feeder1_ID_96;
	conductor_A feeder1_ID_1290;
	conductor_C feeder1_ID_1290;
	conductor_N feeder1_ID_1290;
	spacing feeder1_ID_121;
}

object line_configuration {
	name feeder1_ID_97;
	conductor_A feeder1_ID_1293;
	conductor_B feeder1_ID_1293;
	conductor_C feeder1_ID_1293;
	conductor_N feeder1_ID_1293;
	spacing feeder1_ID_119;
}

object line_configuration {
	name feeder1_ID_98;
	conductor_A feeder1_ID_1289;
	conductor_B feeder1_ID_1289;
	conductor_N feeder1_ID_1289;
	spacing feeder1_ID_122;
}

object line_configuration {
	name feeder1_ID_99;
	conductor_A feeder1_ID_1289;
	conductor_B feeder1_ID_1289;
	conductor_C feeder1_ID_1289;
	conductor_N feeder1_ID_1289;
	spacing feeder1_ID_119;
}

object line_configuration {
	name feeder1_ID_100;
	conductor_A feeder1_ID_1289;
	conductor_C feeder1_ID_1289;
	conductor_N feeder1_ID_1289;
	spacing feeder1_ID_121;
}

object line_configuration {
	name feeder1_ID_101;
	conductor_A feeder1_ID_3892;
	conductor_N feeder1_ID_3892;
	spacing feeder1_ID_123;
}

object line_configuration {
	name feeder1_ID_102;
	conductor_B feeder1_ID_1289;
	conductor_C feeder1_ID_1289;
	conductor_N feeder1_ID_1289;
	spacing feeder1_ID_124;
}

object line_configuration {
	name feeder1_ID_103;
	conductor_C feeder1_ID_3892;
	conductor_N feeder1_ID_3892;
	spacing feeder1_ID_125;
}

object line_configuration {
	name feeder1_ID_104;
	conductor_B feeder1_ID_3892;
	conductor_N feeder1_ID_3892;
	spacing feeder1_ID_126;
}

object line_configuration {
	name feeder1_ID_105;
	conductor_B feeder1_ID_1290;
	conductor_N feeder1_ID_1290;
	spacing feeder1_ID_117;
}

object line_configuration {
	name feeder1_ID_106;
	conductor_C feeder1_ID_1290;
	conductor_N feeder1_ID_1290;
	spacing feeder1_ID_118;
}

object line_configuration {
	name feeder1_ID_107;
	conductor_A feeder1_ID_1291;
	conductor_B feeder1_ID_1291;
	conductor_C feeder1_ID_1291;
	conductor_N feeder1_ID_1291;
	spacing feeder1_ID_119;
}

object line_configuration {
	name feeder1_ID_108;
	conductor_A feeder1_ID_1290;
	conductor_B feeder1_ID_1290;
	conductor_N feeder1_ID_1290;
	spacing feeder1_ID_122;
}

object line_configuration {
	name feeder1_ID_109;
	conductor_A feeder1_ID_1289;
	conductor_N feeder1_ID_1289;
	spacing feeder1_ID_120;
}

object line_configuration {
	name feeder1_ID_110;
	conductor_B feeder1_ID_1289;
	conductor_C feeder1_ID_1289;
	conductor_N feeder1_ID_1289;
	spacing feeder1_ID_127;
}

object line_configuration {
	name feeder1_ID_111;
	conductor_A feeder1_ID_1289;
	conductor_B feeder1_ID_1289;
	conductor_C feeder1_ID_1289;
	conductor_N feeder1_ID_1289;
	spacing feeder1_ID_119;
}

object line_configuration {
	name feeder1_ID_112;
	conductor_C feeder1_ID_1289;
	conductor_N feeder1_ID_1289;
	spacing feeder1_ID_118;
}

object line_configuration {
	name feeder1_ID_113;
	conductor_A feeder1_ID_1290;
	conductor_N feeder1_ID_1290;
	spacing feeder1_ID_120;
}

object line_configuration {
	name feeder1_ID_114;
	conductor_A feeder1_ID_3892;
	conductor_B feeder1_ID_3892;
	conductor_C feeder1_ID_3892;
	conductor_N feeder1_ID_3892;
	spacing feeder1_ID_128;
}

object line_configuration {
	name feeder1_ID_115;
	conductor_A feeder1_ID_1290;
	conductor_B feeder1_ID_1290;
	conductor_C feeder1_ID_1290;
	conductor_N feeder1_ID_1290;
	spacing feeder1_ID_129;
}

object line_configuration {
	name feeder1_ID_116;
	conductor_B feeder1_ID_1289;
	conductor_C feeder1_ID_1289;
	conductor_N feeder1_ID_1289;
	spacing feeder1_ID_124;
}

object underground_line_conductor {
	name feeder1_ID_3892;
	rating.summer.continuous 112.0;
	outer_diameter 1.09;
	conductor_gmr 0.0088 ft;
	conductor_diameter 0.292;
	conductor_resistance 1.38336;
	neutral_gmr 0.00208 ft;
	neutral_resistance 14.87;
	neutral_diameter 0.0641;
	neutral_strands 6.0;
	insulation_relative_permitivitty 2.3;
}

object fuse {
	name R4_12_47_1_fuse_1;
	phases CN;
	from R4_12_47_1_node_515;
	to R4_12_47_1_node_2;
	current_limit 1200;
	status CLOSED;
	mean_replacement_time 3600;
}

object fuse {
	name R4_12_47_1_fuse_2;
	phases CN;
	from R4_12_47_1_node_7;
	to R4_12_47_1_node_6;
	current_limit 400;
	status CLOSED;
	mean_replacement_time 3600;
}

object fuse {
	name R4_12_47_1_fuse_3;
	phases CN;
	from R4_12_47_1_node_499;
	to R4_12_47_1_node_29;
	current_limit 560;
	status CLOSED;
	mean_replacement_time 3600;
}

object fuse {
	name R4_12_47_1_fuse_4;
	phases ABCN;
	from R4_12_47_1_node_40;
	to R4_12_47_1_node_39;
	current_limit 630;
	status CLOSED;
	mean_replacement_time 3600;
}

object fuse {
	name R4_12_47_1_fuse_5;
	phases AN;
	from R4_12_47_1_node_49;
	to R4_12_47_1_node_54;
	current_limit 2000;
	status CLOSED;
	mean_replacement_time 3600;
}

object fuse {
	name R4_12_47_1_fuse_6;
	phases AN;
	from R4_12_47_1_node_55;
	to R4_12_47_1_node_60;
	current_limit 2000;
	status CLOSED;
	mean_replacement_time 3600;
}

object fuse {
	name R4_12_47_1_fuse_7;
	phases BN;
	from R4_12_47_1_node_62;
	to R4_12_47_1_node_63;
	current_limit 560;
	status CLOSED;
	mean_replacement_time 3600;
}

object fuse {
	name R4_12_47_1_fuse_8;
	phases CN;
	from R4_12_47_1_node_56;
	to R4_12_47_1_node_64;
	current_limit 999999;
	status CLOSED;
	mean_replacement_time 3600;
}

object fuse {
	name R4_12_47_1_fuse_9;
	phases CN;
	from R4_12_47_1_node_71;
	to R4_12_47_1_node_72;
	current_limit 400;
	status CLOSED;
	mean_replacement_time 3600;
}

object fuse {
	name R4_12_47_1_fuse_10;
	phases BN;
	from R4_12_47_1_node_78;
	to R4_12_47_1_node_77;
	current_limit 999999;
	status CLOSED;
	mean_replacement_time 3600;
}

object fuse {
	name R4_12_47_1_fuse_11;
	phases ACN;
	from R4_12_47_1_node_510;
	to R4_12_47_1_node_85;
	current_limit 400;
	status CLOSED;
	mean_replacement_time 3600;
}

object fuse {
	name R4_12_47_1_fuse_12;
	phases BN;
	from R4_12_47_1_node_89;
	to R4_12_47_1_node_88;
	current_limit 560;
	status CLOSED;
	mean_replacement_time 3600;
}

object fuse {
	name R4_12_47_1_fuse_13;
	phases BN;
	from R4_12_47_1_node_105;
	to R4_12_47_1_node_92;
	current_limit 999999;
	status CLOSED;
	mean_replacement_time 3600;
}

object fuse {
	name R4_12_47_1_fuse_14;
	phases CN;
	from R4_12_47_1_node_111;
	to R4_12_47_1_node_112;
	current_limit 200;
	status CLOSED;
	mean_replacement_time 3600;
}

object fuse {
	name R4_12_47_1_fuse_15;
	phases BN;
	from R4_12_47_1_node_115;
	to R4_12_47_1_node_116;
	current_limit 560;
	status CLOSED;
	mean_replacement_time 3600;
}

object fuse {
	name R4_12_47_1_fuse_16;
	phases BN;
	from R4_12_47_1_node_119;
	to R4_12_47_1_node_120;
	current_limit 560;
	status CLOSED;
	mean_replacement_time 3600;
}

object fuse {
	name R4_12_47_1_fuse_17;
	phases ACN;
	from R4_12_47_1_node_494;
	to R4_12_47_1_node_122;
	current_limit 800;
	status CLOSED;
	mean_replacement_time 3600;
}

object fuse {
	name R4_12_47_1_fuse_18;
	phases AN;
	from R4_12_47_1_node_127;
	to R4_12_47_1_node_128;
	current_limit 999999;
	status CLOSED;
	mean_replacement_time 3600;
}

object fuse {
	name R4_12_47_1_fuse_19;
	phases AN;
	from R4_12_47_1_node_41;
	to R4_12_47_1_node_129;
	current_limit 999999;
	status CLOSED;
	mean_replacement_time 3600;
}

object fuse {
	name R4_12_47_1_fuse_20;
	phases CN;
	from R4_12_47_1_node_504;
	to R4_12_47_1_node_133;
	current_limit 2000;
	status CLOSED;
	mean_replacement_time 3600;
}

object fuse {
	name R4_12_47_1_fuse_21;
	phases BN;
	from R4_12_47_1_node_560;
	to R4_12_47_1_node_140;
	current_limit 999999;
	status CLOSED;
	mean_replacement_time 3600;
}

object fuse {
	name R4_12_47_1_fuse_22;
	phases AN;
	from R4_12_47_1_node_144;
	to R4_12_47_1_node_143;
	current_limit 400;
	status CLOSED;
	mean_replacement_time 3600;
}

object fuse {
	name R4_12_47_1_fuse_23;
	phases BN;
	from R4_12_47_1_node_149;
	to R4_12_47_1_node_148;
	current_limit 1200;
	status CLOSED;
	mean_replacement_time 3600;
}

object fuse {
	name R4_12_47_1_fuse_24;
	phases CN;
	from R4_12_47_1_node_151;
	to R4_12_47_1_node_152;
	current_limit 1200;
	status CLOSED;
	mean_replacement_time 3600;
}

object fuse {
	name R4_12_47_1_fuse_25;
	phases CN;
	from R4_12_47_1_node_150;
	to R4_12_47_1_node_153;
	current_limit 1200;
	status CLOSED;
	mean_replacement_time 3600;
}

object fuse {
	name R4_12_47_1_fuse_26;
	phases BN;
	from R4_12_47_1_node_164;
	to R4_12_47_1_node_165;
	current_limit 560;
	status CLOSED;
	mean_replacement_time 3600;
}

object fuse {
	name R4_12_47_1_fuse_27;
	phases AN;
	from R4_12_47_1_node_168;
	to R4_12_47_1_node_167;
	current_limit 400;
	status CLOSED;
	mean_replacement_time 3600;
}

object fuse {
	name R4_12_47_1_fuse_28;
	phases AN;
	from R4_12_47_1_node_171;
	to R4_12_47_1_node_172;
	current_limit 999999;
	status CLOSED;
	mean_replacement_time 3600;
}

object fuse {
	name R4_12_47_1_fuse_29;
	phases AN;
	from R4_12_47_1_node_174;
	to R4_12_47_1_node_173;
	current_limit 200;
	status CLOSED;
	mean_replacement_time 3600;
}

object fuse {
	name R4_12_47_1_fuse_30;
	phases AN;
	from R4_12_47_1_node_176;
	to R4_12_47_1_node_177;
	current_limit 800;
	status CLOSED;
	mean_replacement_time 3600;
}

object fuse {
	name R4_12_47_1_fuse_31;
	phases BN;
	from R4_12_47_1_node_489;
	to R4_12_47_1_node_183;
	current_limit 560;
	status CLOSED;
	mean_replacement_time 3600;
}

object fuse {
	name R4_12_47_1_fuse_32;
	phases ABN;
	from R4_12_47_1_node_491;
	to R4_12_47_1_node_187;
	current_limit 800;
	status CLOSED;
	mean_replacement_time 3600;
}

object fuse {
	name R4_12_47_1_fuse_33;
	phases BCN;
	from R4_12_47_1_node_495;
	to R4_12_47_1_node_201;
	current_limit 2000;
	status CLOSED;
	mean_replacement_time 3600;
}

object fuse {
	name R4_12_47_1_fuse_34;
	phases BN;
	from R4_12_47_1_node_497;
	to R4_12_47_1_node_206;
	current_limit 800;
	status CLOSED;
	mean_replacement_time 3600;
}

object fuse {
	name R4_12_47_1_fuse_35;
	phases ABN;
	from R4_12_47_1_node_500;
	to R4_12_47_1_node_216;
	current_limit 50000;
	status CLOSED;
	mean_replacement_time 3600;
}

object fuse {
	name R4_12_47_1_fuse_36;
	phases AN;
	from R4_12_47_1_node_502;
	to R4_12_47_1_node_220;
	current_limit 50000;
	status CLOSED;
	mean_replacement_time 3600;
}

object fuse {
	name R4_12_47_1_fuse_37;
	phases ABCN;
	from R4_12_47_1_node_503;
	to R4_12_47_1_node_223;
	current_limit 560;
	status CLOSED;
	mean_replacement_time 3600;
}

object fuse {
	name R4_12_47_1_fuse_38;
	phases CN;
	from R4_12_47_1_node_511;
	to R4_12_47_1_node_240;
	current_limit 999999;
	status CLOSED;
	mean_replacement_time 3600;
}

object fuse {
	name R4_12_47_1_fuse_39;
	phases BN;
	from R4_12_47_1_node_512;
	to R4_12_47_1_node_250;
	current_limit 280;
	status CLOSED;
	mean_replacement_time 3600;
}

object fuse {
	name R4_12_47_1_fuse_40;
	phases BN;
	from R4_12_47_1_node_16;
	to R4_12_47_1_node_253;
	current_limit 280;
	status CLOSED;
	mean_replacement_time 3600;
}

object fuse {
	name R4_12_47_1_fuse_41;
	phases CN;
	from R4_12_47_1_node_513;
	to R4_12_47_1_node_255;
	current_limit 200;
	status CLOSED;
	mean_replacement_time 3600;
}

object fuse {
	name R4_12_47_1_fuse_42;
	phases BN;
	from R4_12_47_1_node_514;
	to R4_12_47_1_node_257;
	current_limit 280;
	status CLOSED;
	mean_replacement_time 3600;
}

object fuse {
	name R4_12_47_1_fuse_43;
	phases CN;
	from R4_12_47_1_node_516;
	to R4_12_47_1_node_268;
	current_limit 999999;
	status CLOSED;
	mean_replacement_time 3600;
}

object fuse {
	name R4_12_47_1_fuse_44;
	phases CN;
	from R4_12_47_1_node_519;
	to R4_12_47_1_node_277;
	current_limit 400;
	status CLOSED;
	mean_replacement_time 3600;
}

object fuse {
	name R4_12_47_1_fuse_45;
	phases CN;
	from R4_12_47_1_node_521;
	to R4_12_47_1_node_290;
	current_limit 400;
	status CLOSED;
	mean_replacement_time 3600;
}

object fuse {
	name R4_12_47_1_fuse_46;
	phases CN;
	from R4_12_47_1_node_526;
	to R4_12_47_1_node_314;
	current_limit 999999;
	status CLOSED;
	mean_replacement_time 3600;
}

object fuse {
	name R4_12_47_1_fuse_47;
	phases ABCN;
	from R4_12_47_1_node_4;
	to R4_12_47_1_node_337;
	current_limit 999999;
	status CLOSED;
	mean_replacement_time 3600;
}

object fuse {
	name R4_12_47_1_fuse_48;
	phases AN;
	from R4_12_47_1_node_527;
	to R4_12_47_1_node_338;
	current_limit 999999;
	status CLOSED;
	mean_replacement_time 3600;
}

object fuse {
	name R4_12_47_1_fuse_49;
	phases AN;
	from R4_12_47_1_node_530;
	to R4_12_47_1_node_346;
	current_limit 999999;
	status CLOSED;
	mean_replacement_time 3600;
}

object fuse {
	name R4_12_47_1_fuse_50;
	phases BN;
	from R4_12_47_1_node_531;
	to R4_12_47_1_node_359;
	current_limit 999999;
	status CLOSED;
	mean_replacement_time 3600;
}

object fuse {
	name R4_12_47_1_fuse_51;
	phases AN;
	from R4_12_47_1_node_69;
	to R4_12_47_1_node_376;
	current_limit 400;
	status CLOSED;
	mean_replacement_time 3600;
}

object fuse {
	name R4_12_47_1_fuse_52;
	phases AN;
	from R4_12_47_1_node_490;
	to R4_12_47_1_node_388;
	current_limit 800;
	status CLOSED;
	mean_replacement_time 3600;
}

object fuse {
	name R4_12_47_1_fuse_53;
	phases ABN;
	from R4_12_47_1_node_492;
	to R4_12_47_1_node_393;
	current_limit 999999;
	status CLOSED;
	mean_replacement_time 3600;
}

object fuse {
	name R4_12_47_1_fuse_54;
	phases BN;
	from R4_12_47_1_node_20;
	to R4_12_47_1_node_397;
	current_limit 800;
	status CLOSED;
	mean_replacement_time 3600;
}

object fuse {
	name R4_12_47_1_fuse_55;
	phases CN;
	from R4_12_47_1_node_496;
	to R4_12_47_1_node_403;
	current_limit 800;
	status CLOSED;
	mean_replacement_time 3600;
}

object fuse {
	name R4_12_47_1_fuse_56;
	phases CN;
	from R4_12_47_1_node_498;
	to R4_12_47_1_node_406;
	current_limit 800;
	status CLOSED;
	mean_replacement_time 3600;
}

object fuse {
	name R4_12_47_1_fuse_57;
	phases BN;
	from R4_12_47_1_node_1;
	to R4_12_47_1_node_409;
	current_limit 400;
	status CLOSED;
	mean_replacement_time 3600;
}

object fuse {
	name R4_12_47_1_fuse_58;
	phases BN;
	from R4_12_47_1_node_509;
	to R4_12_47_1_node_411;
	current_limit 560;
	status CLOSED;
	mean_replacement_time 3600;
}

object fuse {
	name R4_12_47_1_fuse_59;
	phases CN;
	from R4_12_47_1_node_15;
	to R4_12_47_1_node_413;
	current_limit 560;
	status CLOSED;
	mean_replacement_time 3600;
}

object fuse {
	name R4_12_47_1_fuse_60;
	phases CN;
	from R4_12_47_1_node_110;
	to R4_12_47_1_node_419;
	current_limit 999999;
	status CLOSED;
	mean_replacement_time 3600;
}

object fuse {
	name R4_12_47_1_fuse_61;
	phases ABCN;
	from R4_12_47_1_node_3;
	to R4_12_47_1_node_429;
	current_limit 999999;
	status CLOSED;
	mean_replacement_time 3600;
}

object fuse {
	name R4_12_47_1_fuse_62;
	phases AN;
	from R4_12_47_1_node_520;
	to R4_12_47_1_node_435;
	current_limit 999999;
	status CLOSED;
	mean_replacement_time 3600;
}

object fuse {
	name R4_12_47_1_fuse_63;
	phases ACN;
	from R4_12_47_1_node_522;
	to R4_12_47_1_node_437;
	current_limit 999999;
	status CLOSED;
	mean_replacement_time 3600;
}

object fuse {
	name R4_12_47_1_fuse_64;
	phases BN;
	from R4_12_47_1_node_523;
	to R4_12_47_1_node_445;
	current_limit 999999;
	status CLOSED;
	mean_replacement_time 3600;
}

object fuse {
	name R4_12_47_1_fuse_65;
	phases CN;
	from R4_12_47_1_node_524;
	to R4_12_47_1_node_446;
	current_limit 800;
	status CLOSED;
	mean_replacement_time 3600;
}

object fuse {
	name R4_12_47_1_fuse_66;
	phases AN;
	from R4_12_47_1_node_525;
	to R4_12_47_1_node_449;
	current_limit 2000;
	status CLOSED;
	mean_replacement_time 3600;
}

object fuse {
	name R4_12_47_1_fuse_67;
	phases CN;
	from R4_12_47_1_node_505;
	to R4_12_47_1_node_506;
	current_limit 800;
	status CLOSED;
	mean_replacement_time 3600;
}

object fuse {
	name R4_12_47_1_fuse_68;
	phases CN;
	from R4_12_47_1_node_506;
	to R4_12_47_1_node_534;
	current_limit 800;
	status CLOSED;
	mean_replacement_time 3600;
}

object fuse {
	name R4_12_47_1_fuse_69;
	phases CN;
	from R4_12_47_1_node_507;
	to R4_12_47_1_node_535;
	current_limit 1200;
	status CLOSED;
	mean_replacement_time 3600;
}

object fuse {
	name R4_12_47_1_fuse_70;
	phases AN;
	from R4_12_47_1_node_508;
	to R4_12_47_1_node_536;
	current_limit 999999;
	status CLOSED;
	mean_replacement_time 3600;
}

object fuse {
	name R4_12_47_1_fuse_71;
	phases ABCN;
	from R4_12_47_1_node_517;
	to R4_12_47_1_node_537;
	current_limit 630;
	status CLOSED;
	mean_replacement_time 3600;
}

object fuse {
	name R4_12_47_1_fuse_72;
	phases BN;
	from R4_12_47_1_node_529;
	to R4_12_47_1_node_538;
	current_limit 1200;
	status CLOSED;
	mean_replacement_time 3600;
}

object fuse {
	name R4_12_47_1_fuse_73;
	phases BN;
	from R4_12_47_1_node_487;
	to R4_12_47_1_node_539;
	current_limit 999999;
	status CLOSED;
	mean_replacement_time 3600;
}

object fuse {
	name R4_12_47_1_fuse_74;
	phases BN;
	from R4_12_47_1_node_528;
	to R4_12_47_1_node_540;
	current_limit 999999;
	status CLOSED;
	mean_replacement_time 3600;
}

object fuse {
	name R4_12_47_1_fuse_75;
	phases AN;
	from R4_12_47_1_node_548;
	to R4_12_47_1_node_549;
	current_limit 1200;
	status CLOSED;
	mean_replacement_time 3600;
}

object fuse {
	name R4_12_47_1_fuse_76;
	phases CN;
	from R4_12_47_1_node_556;
	to R4_12_47_1_node_554;
	current_limit 999999;
	status CLOSED;
	mean_replacement_time 3600;
}

object fuse {
	name R4_12_47_1_fuse_77;
	phases CN;
	from R4_12_47_1_node_558;
	to R4_12_47_1_node_559;
	current_limit 2000;
	status CLOSED;
	mean_replacement_time 3600;
}

object fuse {
	name R4_12_47_1_fuse_78;
	phases BN;
	from R4_12_47_1_node_43;
	to R4_12_47_1_node_563;
	current_limit 999999;
	status CLOSED;
	mean_replacement_time 3600;
}

object fuse {
	name R4_12_47_1_fuse_79;
	phases BN;
	from R4_12_47_1_node_564;
	to R4_12_47_1_node_565;
	current_limit 560;
	status CLOSED;
	mean_replacement_time 3600;
}

object switch {
	name R4_12_47_1_switch_1;
	phases ABCN;
	from R4_12_47_1_node_45;
	to R4_12_47_1_node_46;
	status CLOSED;
}

object switch {
	name R4_12_47_1_switch_3;
	phases ABCN;
	from R4_12_47_1_node_159;
	to R4_12_47_1_node_160;
	status CLOSED;
}

object switch {
	name R4_12_47_1_switch_4;
	phases ABCN;
	from R4_12_47_1_node_162;
	to R4_12_47_1_node_161;
	status CLOSED;
}

object switch {
	name R4_12_47_1_switch_5;
	phases ABCN;
	from R4_12_47_1_node_190;
	to R4_12_47_1_node_493;
	status CLOSED;
}

object switch {
	name R4_12_47_1_switch_6;
	phases ABCN;
	from R4_12_47_1_node_219;
	to R4_12_47_1_node_501;
	status CLOSED;
}

object switch {
	name R4_12_47_1_switch_7;
	phases ABCN;
	from R4_12_47_1_node_275;
	to R4_12_47_1_node_518;
	status CLOSED;
}

object switch {
	name R4_12_47_1_switch_8;
	phases ABCN;
	from R4_12_47_1_node_179;
	to R4_12_47_1_node_541;
	status CLOSED;
}

object recloser {
	name R4_12_47_1_recloser_1;
	phases ABCN;
	from R4_12_47_1_node_8;
	to R4_12_47_1_node_9;
	status CLOSED;
	operating_mode INDIVIDUAL;
	phase_A_state CLOSED;
	phase_B_state CLOSED;
	phase_C_state CLOSED;
	retry_time 1.0 s;
	max_number_of_tries 3;
	number_of_tries 0;
}

object overhead_line {
	name R4_12_47_1_ol_1;
	phases BN;
	from R4_12_47_1_node_219;
	to R4_12_47_1_node_1;
	length 19.000;
	configuration feeder1_ID_88;
}

object overhead_line {
	name R4_12_47_1_ol_2;
	phases ABCN;
	from R4_12_47_1_node_180;
	to R4_12_47_1_node_3;
	length 8.000;
	configuration feeder1_ID_90;
}

object overhead_line {
	name R4_12_47_1_ol_3;
	phases ABCN;
	from R4_12_47_1_node_340;
	to R4_12_47_1_node_4;
	length 106.000;
	configuration feeder1_ID_91;
}

object overhead_line {
	name R4_12_47_1_ol_4;
	phases ABCN;
	from R4_12_47_1_node_254;
	to R4_12_47_1_node_5;
	length 672.000;
	configuration feeder1_ID_92;
}

object overhead_line {
	name R4_12_47_1_ol_5;
	phases CN;
	from R4_12_47_1_node_5;
	to R4_12_47_1_node_7;
	length 12.000;
	configuration feeder1_ID_89;
}

object overhead_line {
	name R4_12_47_1_ol_6;
	phases ABCN;
	from R4_12_47_1_node_5;
	to R4_12_47_1_node_8;
	length 299.000;
	configuration feeder1_ID_92;
}

object overhead_line {
	name R4_12_47_1_ol_7;
	phases CN;
	from R4_12_47_1_node_9;
	to R4_12_47_1_node_10;
	length 181.000;
	configuration feeder1_ID_89;
}

object overhead_line {
	name R4_12_47_1_ol_8;
	phases ABCN;
	from R4_12_47_1_node_396;
	to R4_12_47_1_node_11;
	length 702.000;
	configuration feeder1_ID_91;
}

object overhead_line {
	name R4_12_47_1_ol_9;
	phases BN;
	from R4_12_47_1_node_462;
	to R4_12_47_1_node_12;
	length 396.000;
	configuration feeder1_ID_88;
}

object overhead_line {
	name R4_12_47_1_ol_10;
	phases CN;
	from R4_12_47_1_node_413;
	to R4_12_47_1_node_13;
	length 657.000;
	configuration feeder1_ID_89;
}

object overhead_line {
	name R4_12_47_1_ol_11;
	phases ABCN;
	from R4_12_47_1_node_272;
	to R4_12_47_1_node_14;
	length 115.000;
	configuration feeder1_ID_93;
}

object overhead_line {
	name R4_12_47_1_ol_12;
	phases CN;
	from R4_12_47_1_node_251;
	to R4_12_47_1_node_15;
	length 11.000;
	configuration feeder1_ID_89;
}

object overhead_line {
	name R4_12_47_1_ol_13;
	phases BN;
	from R4_12_47_1_node_252;
	to R4_12_47_1_node_16;
	length 9.000;
	configuration feeder1_ID_88;
}

object overhead_line {
	name R4_12_47_1_ol_14;
	phases ABCN;
	from R4_12_47_1_node_551;
	to R4_12_47_1_node_17;
	length 525.000;
	configuration feeder1_ID_94;
}

object overhead_line {
	name R4_12_47_1_ol_15;
	phases CN;
	from R4_12_47_1_node_17;
	to R4_12_47_1_node_18;
	length 113.000;
	configuration feeder1_ID_89;
}

object overhead_line {
	name R4_12_47_1_ol_16;
	phases ABCN;
	from R4_12_47_1_node_22;
	to R4_12_47_1_node_19;
	length 154.000;
	configuration feeder1_ID_90;
}

object overhead_line {
	name R4_12_47_1_ol_17;
	phases BN;
	from R4_12_47_1_node_19;
	to R4_12_47_1_node_20;
	length 15.000;
	configuration feeder1_ID_88;
}

object overhead_line {
	name R4_12_47_1_ol_18;
	phases ABCN;
	from R4_12_47_1_node_194;
	to R4_12_47_1_node_21;
	length 401.000;
	configuration feeder1_ID_91;
}

object overhead_line {
	name R4_12_47_1_ol_19;
	phases ABCN;
	from R4_12_47_1_node_21;
	to R4_12_47_1_node_22;
	length 295.000;
	configuration feeder1_ID_91;
}

object overhead_line {
	name R4_12_47_1_ol_20;
	phases ABCN;
	from R4_12_47_1_node_21;
	to R4_12_47_1_node_23;
	length 100.000;
	configuration feeder1_ID_91;
}

object overhead_line {
	name R4_12_47_1_ol_21;
	phases AN;
	from R4_12_47_1_node_25;
	to R4_12_47_1_node_24;
	length 376.000;
	configuration feeder1_ID_95;
}

object overhead_line {
	name R4_12_47_1_ol_22;
	phases AN;
	from R4_12_47_1_node_568;
	to R4_12_47_1_node_25;
	length 234.000;
	configuration feeder1_ID_95;
}

object overhead_line {
	name R4_12_47_1_ol_23;
	phases ACN;
	from R4_12_47_1_node_437;
	to R4_12_47_1_node_26;
	length 140.000;
	configuration feeder1_ID_96;
}

object overhead_line {
	name R4_12_47_1_ol_24;
	phases ACN;
	from R4_12_47_1_node_307;
	to R4_12_47_1_node_27;
	length 214.000;
	configuration feeder1_ID_96;
}

object overhead_line {
	name R4_12_47_1_ol_25;
	phases CN;
	from R4_12_47_1_node_29;
	to R4_12_47_1_node_28;
	length 246.000;
	configuration feeder1_ID_89;
}

object overhead_line {
	name R4_12_47_1_ol_26;
	phases CN;
	from R4_12_47_1_node_109;
	to R4_12_47_1_node_30;
	length 399.000;
	configuration feeder1_ID_89;
}

object overhead_line {
	name R4_12_47_1_ol_27;
	phases CN;
	from R4_12_47_1_node_2;
	to R4_12_47_1_node_31;
	length 572.000;
	configuration feeder1_ID_89;
}

object overhead_line {
	name R4_12_47_1_ol_28;
	phases ABCN;
	from R4_12_47_1_node_372;
	to R4_12_47_1_node_32;
	length 221.000;
	configuration feeder1_ID_97;
}

object overhead_line {
	name R4_12_47_1_ol_29;
	phases ABN;
	from R4_12_47_1_node_32;
	to R4_12_47_1_node_33;
	length 225.000;
	configuration feeder1_ID_98;
}

object overhead_line {
	name R4_12_47_1_ol_30;
	phases ABCN;
	from R4_12_47_1_node_32;
	to R4_12_47_1_node_34;
	length 105.000;
	configuration feeder1_ID_97;
}

object overhead_line {
	name R4_12_47_1_ol_31;
	phases AN;
	from R4_12_47_1_node_34;
	to R4_12_47_1_node_35;
	length 95.000;
	configuration feeder1_ID_95;
}

object overhead_line {
	name R4_12_47_1_ol_32;
	phases ABCN;
	from R4_12_47_1_node_34;
	to R4_12_47_1_node_36;
	length 390.000;
	configuration feeder1_ID_97;
}

object overhead_line {
	name R4_12_47_1_ol_33;
	phases ABCN;
	from R4_12_47_1_node_50;
	to R4_12_47_1_node_37;
	length 157.000;
	configuration feeder1_ID_97;
}

object overhead_line {
	name R4_12_47_1_ol_34;
	phases ABCN;
	from R4_12_47_1_node_37;
	to R4_12_47_1_node_38;
	length 85.000;
	configuration feeder1_ID_97;
}

object overhead_line {
	name R4_12_47_1_ol_35;
	phases ABCN;
	from R4_12_47_1_node_38;
	to R4_12_47_1_node_40;
	length 12.000;
	configuration feeder1_ID_99;
}

object overhead_line {
	name R4_12_47_1_ol_36;
	phases AN;
	from R4_12_47_1_node_35;
	to R4_12_47_1_node_41;
	length 12.000;
...